#!/sbin/sh
TMPDIR=/dev/tmp
MOUNTPATH=/dev/magisk_img
umask 022
rm -rf $TMPDIR 2>/dev/null
mkdir -p $TMPDIR
ui_print() { echo "$1"; }
imageless_magisk() {
  [ $MAGISK_VER_CODE -gt 18100 ]
  return $?
}
OUTFD=$2
ZIPFILE=$3
mount /data 2>/dev/null
if [ -f /data/adb/magisk/util_functions.sh ]; then
  . /data/adb/magisk/util_functions.sh
  NVBASE=/data/adb
else
  UF=$TMPDIR/common/unityfiles
  unzip -oq "$ZIPFILE" 'common/unityfiles/util_functions.sh' -d $TMPDIR >&2
  [ -f "$UF/util_functions.sh" ] || { ui_print "! Unable to extract zip file !"; exit 1; }
  . $UF/util_functions.sh
fi
setup_flashable
mount_partitions
api_level_arch_detect
$BOOTMODE && boot_actions || recovery_actions
unzip -oj "$ZIPFILE" module.prop install.sh uninstall.sh 'common/*' -d $TMPDIR >&2
[ ! -f $TMPDIR/install.sh ] && abort "! Unable to extract zip file!"
# Load install script
. $TMPDIR/install.sh
if $MAGISK; then
  if imageless_magisk; then
    $BOOTMODE && MODDIRNAME=modules_update || MODDIRNAME=modules
    MODULEROOT=$NVBASE/$MODDIRNAME
  else
    $BOOTMODE && IMGNAME=magisk_merge.img || IMGNAME=magisk.img
    IMG=$NVBASE/$IMGNAME
    request_zip_size_check "$ZIPFILE"
    mount_magisk_img
    MODULEROOT=$MOUNTPATH
  fi
else
  MODULEROOT=$MOUNTPATH
fi
MODID=`grep_prop id $TMPDIR/module.prop`
MODPATH=$MODULEROOT/$MODID
print_modname
